Circuit: * C:\eeo\eeo-353\reports\l7.asc

WARNING: Node OUT is floating.

WARNING: Less than two connections to node OUT.  This node is used by C3.
Direct Newton iteration for .op point succeeded.

Date: Sun Apr 07 07:44:06 2024
Total elapsed time: 0.072 seconds.

tnom = 27
temp = 27
method = modified trap
totiter = 2090
traniter = 2082
tranpoints = 1042
accept = 1042
rejected = 0
matrix size = 11
fillins = 0
solver = Normal
Matrix Compiler1: 610 bytes object code size  0.3/0.2/[0.2]
Matrix Compiler2: 835 bytes object code size  0.2/0.3/[0.2]

