Circuit: * C:\eeo\eeo-353\reports\l-5\_spice\task2 - Copy.asc

Direct Newton iteration for .op point succeeded.

Date: Sun Mar 17 19:17:56 2024
Total elapsed time: 0.618 seconds.

tnom = 27
temp = 27
method = modified trap
totiter = 202173
traniter = 202167
tranpoints = 100795
accept = 100491
rejected = 304
matrix size = 9
fillins = 5
solver = Normal
Matrix Compiler1: 992 bytes object code size  0.2/0.1/[0.1]
Matrix Compiler2: 841 bytes object code size  0.1/0.1/[0.1]

