Circuit: * C:\eeo\eeo-352\spice\lab-2\diode.asc

V1: Missing value, assumed 0V @ DC

Date: Mon Sep 18 10:34:44 2023
Total elapsed time: 0.036 seconds.

tnom = 27
temp = 27
method = trap
totiter = 4006
traniter = 0
tranpoints = 0
accept = 0
rejected = 0
matrix size = 4
fillins = 0
solver = Normal
Matrix Compiler1:       7 opcodes  0.0/[0.0]/0.0
Matrix Compiler2: off  [0.0]/0.0/0.0

