Circuit: * C:\eeo\eeo-352\spice\lab-2\lpf-tran.asc

.OP point found by inspection.

Date: Sat Sep 16 20:23:34 2023
Total elapsed time: 0.049 seconds.

tnom = 27
temp = 27
method = modified trap
totiter = 2082
traniter = 2082
tranpoints = 1042
accept = 1042
rejected = 0
matrix size = 3
fillins = 0
solver = Normal
Matrix Compiler1: 50 bytes object code size  0.1/0.1/[0.1]
Matrix Compiler2:      15 opcodes  0.1/[0.1]/0.1

