Circuit: * C:\eeo\eeo-353\reports\l-2\_spice\fig1-2.asc

Direct Newton iteration for .op point succeeded.
N-Period=100
Fourier components of V(o)
DC component:-0.00555405

Harmonic	Frequency	 Fourier 	Normalized	 Phase  	Normalized
 Number 	  [Hz]   	Component	 Component	[degree]	Phase [deg]
    1   	2.000e+03	7.681e-01	1.000e+00	 -179.51°	    0.00°
    2   	4.000e+03	1.288e-02	1.677e-02	   91.09°	  270.59°
    3   	6.000e+03	1.754e-03	2.284e-03	 -178.59°	    0.92°
    4   	8.000e+03	2.485e-04	3.235e-04	  -89.49°	   90.02°
    5   	1.000e+04	3.094e-05	4.028e-05	    2.58°	  182.08°
    6   	1.200e+04	6.279e-06	8.174e-06	  128.74°	  308.24°
    7   	1.400e+04	3.810e-06	4.960e-06	 -179.72°	   -0.21°
    8   	1.600e+04	2.777e-06	3.615e-06	 -178.72°	    0.78°
    9   	1.800e+04	2.465e-06	3.209e-06	  179.79°	  359.30°
   10   	2.000e+04	2.224e-06	2.895e-06	  179.82°	  359.33°
Total Harmonic Distortion: 1.693046%(1.693441%)



Date: Sun Feb 04 11:42:42 2024
Total elapsed time: 3.403 seconds.

tnom = 27
temp = 27
method = modified trap
totiter = 1000079
traniter = 1000072
tranpoints = 500026
accept = 500024
rejected = 2
matrix size = 12
fillins = 0
solver = Normal
Matrix Compiler1:      38 opcodes  0.1/[0.1]/0.1
Matrix Compiler2: off  [0.1]/0.1/0.1

