Circuit: * C:\eeo\eeo-353\reports\l-2\_spice\fig2-4.asc

Direct Newton iteration for .op point succeeded.
N-Period=100
Fourier components of V(o)
DC component:0.00372624

Harmonic	Frequency	 Fourier 	Normalized	 Phase  	Normalized
 Number 	  [Hz]   	Component	 Component	[degree]	Phase [deg]
    1   	2.000e+03	8.715e-01	1.000e+00	   -0.19°	    0.00°
    2   	4.000e+03	4.073e-03	4.673e-03	  -90.33°	  -90.14°
    3   	6.000e+03	1.907e-01	2.189e-01	  179.41°	  179.60°
    4   	8.000e+03	1.119e-04	1.285e-04	  -89.61°	  -89.42°
    5   	1.000e+04	7.102e-02	8.150e-02	  178.91°	  179.10°
    6   	1.200e+04	2.180e-04	2.502e-04	   88.87°	   89.06°
    7   	1.400e+04	2.162e-02	2.481e-02	  178.18°	  178.37°
    8   	1.600e+04	1.890e-04	2.169e-04	   89.17°	   89.36°
    9   	1.800e+04	1.801e-04	2.067e-04	   40.27°	   40.46°
   10   	2.000e+04	1.005e-04	1.153e-04	   90.03°	   90.22°
Total Harmonic Distortion: 23.491098%(23.537022%)



Date: Sat Feb 03 15:38:36 2024
Total elapsed time: 6.261 seconds.

tnom = 27
temp = 27
method = modified trap
totiter = 1000075
traniter = 1000048
tranpoints = 500025
accept = 500022
rejected = 3
matrix size = 20
fillins = 10
solver = Normal
Matrix Compiler1: 1.82 KB object code size  0.2/0.1/[0.1]
Matrix Compiler2: off  [0.1]/0.2/0.2

