Circuit: * C:\eeo\eeo-352\spice\lab-3\Draft1.asc

Direct Newton iteration for .op point succeeded.

Date: Sat Sep 30 10:17:10 2023
Total elapsed time: 0.020 seconds.

tnom = 27
temp = 27
method = modified trap
totiter = 2094
traniter = 2084
tranpoints = 1043
accept = 1043
rejected = 0
matrix size = 8
fillins = 4
solver = Normal
Matrix Compiler1: 1.00 KB object code size  0.1/0.1/[0.1]
Matrix Compiler2:      65 opcodes  0.1/[0.1]/0.1

