Circuit: * C:\eeo\eeo-352\spice\lab-3\fig1b.asc

Direct Newton iteration for .op point succeeded.
.step rf=10
.step rf=200

Date: Sat Sep 30 19:47:14 2023
Total elapsed time: 0.053 seconds.

tnom = 27
temp = 27
method = modified trap
totiter = 2355
traniter = 2333
tranpoints = 1111
accept = 1081
rejected = 30
matrix size = 11
fillins = 0
solver = Normal
Matrix Compiler1:      25 opcodes  0.1/[0.0]/0.1
Matrix Compiler2: off  [0.0]/0.1/0.1

