Circuit: * C:\eeo\eeo-353\reports\l-7\_spice\l7.asc

Direct Newton iteration for .op point succeeded.

Date: Sun Apr 07 14:33:24 2024
Total elapsed time: 0.064 seconds.

tnom = 27
temp = 27
method = trap
totiter = 8
traniter = 0
tranpoints = 0
accept = 0
rejected = 0
matrix size = 16
fillins = 5
solver = Normal
Matrix Compiler1:      67 opcodes
Matrix Compiler2: 1.44 KB object code size
