Circuit: * C:\eeo\eeo-353\reports\l-10\_spice\task1.asc

WARNING: Node IN_NEG is floating.

Direct Newton iteration failed to find .op point.  (Use ".option noopiter" to skip.)
Starting Gmin stepping
Gmin = 10
Gmin = 1.07374
vernier = 0.5
vernier = 0.666667
Gmin = 0.402032
vernier = 0.888888
vernier = 1
Gmin = 0.0567082
vernier = 0.5
vernier = 0.25
vernier = 0.125
Gmin = 0.0466943
vernier = 0.166667
vernier = 0.0833333
Gmin = 0.0376339
vernier = 0.111111
vernier = 0.0555555
vernier = 0.074074
Gmin = 0.033094
vernier = 0.037037
vernier = 0.0185185
vernier = 0.0246913
Gmin = 0.0324349
vernier = 0.0329218
Gmin = 0.0301892
vernier = 0.0438957
vernier = 0.0219478
vernier = 0.0292638
Gmin = 0.0287129
vernier = 0.0146319
vernier = 0.0195092
Gmin = 0.0277177
vernier = 0.0260122
vernier = 0.0130061
Gmin = 0.0265736
vernier = 0.0173415
vernier = 0.00867074
Gmin = 0.0257807
vernier = 0.011561
vernier = 0.00578049
Gmin = 0.0252833
vernier = 0.00770732
Gmin = 0.0248609
vernier = 0.0102764
vernier = 0.0137019
vernier = 0.00685095
Gmin = 0.0243923
vernier = 0.0091346
Gmin = 0.0238966
vernier = 0.0121795
vernier = 0.0162393
vernier = 0.00811964
Gmin = 0.0233696
vernier = 0.00405982
vernier = 0.00541309
Gmin = 0.0231573
vernier = 0.00270655
vernier = 0.00360873
vernier = 0.00180436
Gmin = 0.0230687
vernier = 0.000902182
Gmin = 0.0230115
vernier = 0.00120291
vernier = 0.00160388
Gmin = 0.0229332
vernier = 0.000801939
vernier = 0.000400969
Gmin = 0
Gmin = 0
Gmin stepping failed

Starting source stepping with srcstepmethod=0
Source Step = 3.0303%
Source Step = 21.2595%
vernier = 0.00390625
Source Step = 21.2388%
Source Step = 21.2683%
Source Step = 21.2979%
Source Step = 21.3275%
Source Step = 21.3571%
vernier = 0.00146484
Source Step = 21.3926%
Source Step = 21.437%
Source Step = 21.4814%
Source Step = 21.5258%
Source Step = 21.5702%
vernier = 0.00219727
Source Step = 21.6212%
Source Step = 21.6878%
Source Step = 21.7544%
Source Step = 21.821%
Source Step = 21.8876%
vernier = 0.0032959
Source Step = 21.9608%
Source Step = 22.0607%
Source Step = 22.1606%
Source Step = 22.2604%
Source Step = 22.3603%
vernier = 0.00494385
Source Step = 22.4652%
Source Step = 22.615%
Source Step = 22.7648%
Source Step = 22.9146%
Source Step = 23.0644%
Source Step = 23.2143%
vernier = 0.00741577
Source Step = 23.439%
Source Step = 23.6637%
Source Step = 23.8884%
Source Step = 24.1131%
Source Step = 24.3379%
vernier = 0.0111237
Source Step = 24.6637%
Source Step = 25.0008%
Source Step = 25.3379%
Source Step = 25.6749%
Source Step = 26.012%
vernier = 0.0166855
Source Step = 26.4839%
Source Step = 26.9896%
Source Step = 27.4952%
Source Step = 28.0008%
Source Step = 28.5064%
vernier = 0.0250282
Source Step = 29.189%
Source Step = 29.9474%
Source Step = 30.7059%
Source Step = 31.4643%
Source Step = 32.2227%
vernier = 0.0375423
Source Step = 33.2087%
Source Step = 34.3463%
Source Step = 35.484%
Source Step = 36.6216%
Source Step = 37.7593%
vernier = 0.0563135
Source Step = 39.1813%
Source Step = 40.8878%
Source Step = 42.5943%
Source Step = 44.3008%
Source Step = 46.0072%
vernier = 0.0844703
Source Step = 48.055%
Source Step = 50.6147%
Source Step = 53.1744%
Source Step = 55.7341%
Source Step = 58.2938%
vernier = 0.126705
Source Step = 61.2375%
Source Step = 65.077%
Source Step = 68.9166%
Source Step = 72.7561%
Source Step = 76.5957%
vernier = 0.190058
Source Step = 80.8192%
Source Step = 86.5786%
Source Step = 92.3379%
Source Step = 98.0972%
Source Step = 100%
Source stepping succeeded in finding the operating point.


Date: Tue May 07 15:32:39 2024
Total elapsed time: 0.311 seconds.

tnom = 27
temp = 27
method = modified trap
totiter = 16015
traniter = 2082
tranpoints = 1042
accept = 1042
rejected = 0
matrix size = 96
fillins = 140
solver = Normal
Thread vector: 3.4/2.2[2] 1.6/1.0[2] 0.8/0.7[2] 0.1/0.6[1]  2592/500
Matrix Compiler1: 7.44 KB object code size  1.0/0.5/[0.3]
Matrix Compiler2: off  [0.4]/0.9/0.5

