Circuit: * C:\eeo\eeo-353\reports\l-4\_spice\task2.asc

WARNING: Node OUT_DECOUPLED is floating.

WARNING: Less than two connections to node OUT_DECOUPLED.  This node is used by C2.
Direct Newton iteration for .op point succeeded.
.step x=5.1e-011
.step x=1.01e-010
.step x=1.51e-010
.step x=2.01e-010
.step x=2.51e-010
.step x=3.01e-010
.step x=3.3e-010



Date: Sun Mar 03 17:33:05 2024
Total elapsed time: 0.127 seconds.

tnom = 27
temp = 27
method = trap
totiter = 8
traniter = 0
tranpoints = 0
accept = 0
rejected = 0
matrix size = 55
fillins = 28
solver = Normal
Matrix Compiler1:     326 opcodes
Matrix Compiler2: 5.52 KB object code size
