Circuit: * C:\eeo\eeo-353\reports\l-4\_spice\task1.asc

Direct Newton iteration for .op point succeeded.

Date: Sun Feb 18 13:44:31 2024
Total elapsed time: 0.016 seconds.

tnom = 27
temp = 27
method = modified trap
totiter = 2112
traniter = 2082
tranpoints = 1042
accept = 1042
rejected = 0
matrix size = 45
fillins = 24
solver = Normal
Matrix Compiler1:     268 opcodes  0.6/0.3/[0.3]
Matrix Compiler2: off
