Circuit: * C:\eeo\eeo-353\reports\l-4\_spice\task1.asc

Direct Newton iteration for .op point succeeded.

Date: Sun Mar 03 10:16:59 2024
Total elapsed time: 0.083 seconds.

tnom = 27
temp = 27
method = modified trap
totiter = 2097
traniter = 2090
tranpoints = 1046
accept = 1046
rejected = 0
matrix size = 52
fillins = 24
solver = Normal
Matrix Compiler1: 5.55 KB object code size  1.9/1.1/[0.7]
Matrix Compiler2: 5.27 KB object code size  0.9/1.4/[0.8]

