Circuit: * C:\eeo\eeo-352\spice\lab-5\1c.asc

Direct Newton iteration for .op point succeeded.

Date: Sun Oct 22 14:44:06 2023
Total elapsed time: 0.290 seconds.

tnom = 27
temp = 27
method = modified trap
totiter = 8332
traniter = 8329
tranpoints = 4156
accept = 3586
rejected = 570
matrix size = 9
fillins = 0
solver = Normal
Matrix Compiler1: 152 bytes object code size  0.1/0.1/[0.1]
Matrix Compiler2: 383 bytes object code size  0.1/0.1/[0.1]

