Circuit: * C:\eeo\eeo-353\reports\l-5\_spice\Draft1.asc


Date: Wed Apr 10 20:15:31 2024
Total elapsed time: 0.012 seconds.

tnom = 27
temp = 27
method = trap
totiter = 0
traniter = 0
tranpoints = 0
accept = 0
rejected = 0
matrix size = 3
fillins = 0
solver = Normal

