Circuit: * C:\eeo\eeo-353\reports\l-5\_spice\task1.asc

Direct Newton iteration for .op point succeeded.

Date: Mon Mar 18 17:00:55 2024
Total elapsed time: 0.071 seconds.

tnom = 27
temp = 27
method = modified trap
totiter = 5509
traniter = 5505
tranpoints = 1949
accept = 1638
rejected = 311
matrix size = 29
fillins = 12
solver = Normal
Matrix Compiler1: 3.05 KB object code size  0.8/0.4/[0.3]
Matrix Compiler2: 2.87 KB object code size  0.3/0.5/[0.3]

