Circuit: * C:\eeo\eeo-353\reports\l-5\_spice\task2.asc

Direct Newton iteration for .op point succeeded.

Date: Wed Mar 13 20:56:23 2024
Total elapsed time: 3.644 seconds.

tnom = 27
temp = 27
method = modified trap
totiter = 202246
traniter = 202240
tranpoints = 100828
accept = 100508
rejected = 320
matrix size = 9
fillins = 5
solver = Normal
Matrix Compiler1: 1010 bytes object code size  0.4/0.3/[0.2]
Matrix Compiler2: 835 bytes object code size  0.2/0.3/[0.2]

