Circuit: * C:\eeo\eeo-352\spice\lab-4\1a-3-1.asc

Direct Newton iteration for .op point succeeded.

Date: Fri Oct 13 20:57:21 2023
Total elapsed time: 0.084 seconds.

tnom = 27
temp = 27
method = modified trap
totiter = 3391
traniter = 3383
tranpoints = 1120
accept = 1098
rejected = 22
matrix size = 13
fillins = 1
solver = Normal
Matrix Compiler1: 746 bytes object code size  0.2/0.1/[0.1]
Matrix Compiler2: 1.01 KB object code size  0.1/0.1/[0.1]

