Circuit: * C:\eeo\eeo-352\spice\lab-4\1c-1.asc

Direct Newton iteration for .op point succeeded.

Date: Fri Oct 13 13:02:06 2023
Total elapsed time: 0.068 seconds.

tnom = 27
temp = 27
method = modified trap
totiter = 3176
traniter = 3170
tranpoints = 1186
accept = 1148
rejected = 38
matrix size = 8
fillins = 0
solver = Normal
Matrix Compiler1:      17 opcodes  0.1/[0.0]/0.0
Matrix Compiler2: 642 bytes object code size  0.0/0.1/[0.0]

