Circuit: * C:\eeo\eeo-352\spice\lab-4\Draft1.asc

WARNING: Less than two connections to node C1.  This node is used by A2.
WARNING: Less than two connections to node C2.  This node is used by A3.
Direct Newton iteration for .op point succeeded.

Date: Tue Oct 17 20:00:01 2023
Total elapsed time: 0.095 seconds.

tnom = 27
temp = 27
method = modified trap
totiter = 8912
traniter = 8907
tranpoints = 4385
accept = 3736
rejected = 649
matrix size = 10
fillins = 0
solver = Normal
Matrix Compiler1: 148 bytes object code size  0.1/0.1/[0.1]
Matrix Compiler2: 408 bytes object code size  0.1/0.2/[0.1]

