Circuit: * C:\eeo\eeo-352\spice\l6-spice\1b.asc

Direct Newton iteration for .op point succeeded.

Date: Sun Oct 29 21:01:03 2023
Total elapsed time: 0.025 seconds.

tnom = 27
temp = 27
method = trap
totiter = 25
traniter = 0
tranpoints = 0
accept = 0
rejected = 0
matrix size = 12
fillins = 3
solver = Normal
Matrix Compiler1:      38 opcodes
Matrix Compiler2: 1.15 KB object code size
