Circuit: * C:\eeo\eeo-353\reports\l-3\_spice\fig1-a.asc

Direct Newton iteration for .op point succeeded.

Date: Tue Feb 13 15:38:47 2024
Total elapsed time: 0.055 seconds.

tnom = 27
temp = 27
method = trap
totiter = 6
traniter = 0
tranpoints = 0
accept = 0
rejected = 0
matrix size = 26
fillins = 0
solver = Normal
Matrix Compiler1:      91 opcodes
Matrix Compiler2: 2.10 KB object code size
