Circuit: * C:\eeo\eeo-352\spice\lab-4\1a-2.asc

Direct Newton iteration for .op point succeeded.

Date: Fri Oct 13 20:07:56 2023
Total elapsed time: 0.068 seconds.

tnom = 27
temp = 27
method = modified trap
totiter = 2298
traniter = 2292
tranpoints = 1117
accept = 1105
rejected = 12
matrix size = 5
fillins = 0
solver = Normal
Matrix Compiler1: 132 bytes object code size  0.1/0.0/[0.0]
Matrix Compiler2: off  [0.0]/0.1/0.1

