Circuit: * C:\eeo\eeo-352\spice\lab-4\1a-3-2.asc

Direct Newton iteration for .op point succeeded.

Date: Fri Oct 13 21:26:01 2023
Total elapsed time: 0.118 seconds.

tnom = 27
temp = 27
method = modified trap
totiter = 3385
traniter = 3377
tranpoints = 1264
accept = 1190
rejected = 74
matrix size = 13
fillins = 0
solver = Normal
Matrix Compiler1: 692 bytes object code size  0.3/0.2/[0.2]
Matrix Compiler2: off  [0.2]/0.3/0.2

