Circuit: * C:\eeo\eeo-352\spice\lab-4\1a.asc

Direct Newton iteration for .op point succeeded.

Date: Fri Oct 13 13:42:28 2023
Total elapsed time: 0.061 seconds.

tnom = 27
temp = 27
method = modified trap
totiter = 2228
traniter = 2222
tranpoints = 1095
accept = 1082
rejected = 13
matrix size = 5
fillins = 0
solver = Normal
Matrix Compiler1: 132 bytes object code size  0.0/0.0/[0.0]
Matrix Compiler2: off  [0.0]/0.0/0.1

