Circuit: * C:\eeo\eeo-352\spice\lab-4\1b-2.asc

Direct Newton iteration for .op point succeeded.
Heightened Def Con from 0.00580589 +++++++++++to 0.00580589
Heightened Def Con from 0.0158069 +++++++++to 0.0158069

Date: Fri Oct 13 12:27:18 2023
Total elapsed time: 0.049 seconds.

tnom = 27
temp = 27
method = modified trap
totiter = 5031
traniter = 5015
tranpoints = 1399
accept = 1170
rejected = 251
matrix size = 7
fillins = 0
solver = Normal
Matrix Compiler1: 304 bytes object code size  0.1/0.0/[0.0]
Matrix Compiler2: off  [0.0]/0.1/0.1

