Circuit: * C:\eeo\eeo-352\spice\lab-4\1c-2.asc

Direct Newton iteration for .op point succeeded.

Date: Fri Oct 13 12:59:06 2023
Total elapsed time: 0.056 seconds.

tnom = 27
temp = 27
method = modified trap
totiter = 2465
traniter = 2453
tranpoints = 1174
accept = 1141
rejected = 33
matrix size = 8
fillins = 0
solver = Normal
Matrix Compiler1: 318 bytes object code size  0.1/0.0/[0.0]
Matrix Compiler2: off  [0.0]/0.1/0.1

