Circuit: * C:\eeo\eeo-352\spice\lab-4\1c.asc

Direct Newton iteration for .op point succeeded.

Date: Fri Oct 13 12:47:26 2023
Total elapsed time: 0.041 seconds.

tnom = 27
temp = 27
method = modified trap
totiter = 3176
traniter = 3170
tranpoints = 1186
accept = 1148
rejected = 38
matrix size = 8
fillins = 0
solver = Normal
Matrix Compiler1:      17 opcodes  0.1/[0.0]/0.0
Matrix Compiler2: off  [0.0]/0.1/0.0

