Circuit: * C:\eeo\eeo-352\spice\lab-4\1d.asc

WARNING: Less than two connections to node VDD.  This node is used by V2.
WARNING: Less than two connections to node OUTPUT.  This node is used by A4.
Direct Newton iteration for .op point succeeded.

Date: Fri Oct 13 13:22:24 2023
Total elapsed time: 0.016 seconds.

tnom = 27
temp = 27
method = modified trap
totiter = 2320
traniter = 2316
tranpoints = 1154
accept = 1124
rejected = 30
matrix size = 10
fillins = 0
solver = Normal
Matrix Compiler1:      11 opcodes  0.0/[0.0]/0.0
Matrix Compiler2: 422 bytes object code size  0.0/0.0/[0.0]

