Circuit: * C:\eeo\eeo-352\spice\lab-4\1e.asc

WARNING: Less than two connections to node VDD.  This node is used by V2.
WARNING: Less than two connections to node OUTPUT.  This node is used by A5.
Direct Newton iteration for .op point succeeded.

Date: Fri Oct 13 13:28:45 2023
Total elapsed time: 0.020 seconds.

tnom = 27
temp = 27
method = modified trap
totiter = 2326
traniter = 2320
tranpoints = 1154
accept = 1124
rejected = 30
matrix size = 11
fillins = 0
solver = Normal
Matrix Compiler1: 180 bytes object code size  0.0/0.0/[0.0]
Matrix Compiler2:      46 opcodes  0.0/[0.0]/0.0

