Circuit: * C:\eeo\eeo-352\spice\l7-spice\fig1.asc

.OP point found by inspection.
.step v2=0
.step v2=0.2
.step v2=0.4
.step v2=0.6
.step v2=0.8
.step v2=1
.step v2=1.2
.step v2=1.4
.step v2=1.6
.step v2=1.8
.step v2=2
.step v2=2.2
.step v2=2.4
.step v2=2.6
.step v2=2.8
.step v2=3

Date: Sun Nov 12 19:54:59 2023
Total elapsed time: 0.072 seconds.

tnom = 27
temp = 27
method = trap
totiter = 6463
traniter = 0
tranpoints = 0
accept = 0
rejected = 0
matrix size = 6
fillins = 0
solver = Normal
Matrix Compiler1: 200 bytes object code size  0.1/0.1/[0.1]
Matrix Compiler2: off  [0.1]/0.1/0.1

