Circuit: * C:\eeo\eeo-352\spice\l8-spice\fig1.asc


Date: Sat Nov 25 21:15:37 2023
Total elapsed time: 0.033 seconds.

tnom = 27
temp = 27
method = trap
totiter = 505
traniter = 0
tranpoints = 0
accept = 0
rejected = 0
matrix size = 7
fillins = 0
solver = Normal
Matrix Compiler1:      18 opcodes  0.1/[0.1]/0.1
Matrix Compiler2: 515 bytes object code size  0.1/0.1/[0.1]

