Circuit: * C:\eeo\eeo-352\spice\l8-spice\fig2.asc

WARNING: Node N002 is floating.

WARNING: Less than two connections to node N002.  This node is used by C2.
Direct Newton iteration for .op point succeeded.

Date: Sun Nov 26 15:42:51 2023
Total elapsed time: 0.047 seconds.

tnom = 27
temp = 27
method = trap
totiter = 6
traniter = 0
tranpoints = 0
accept = 0
rejected = 0
matrix size = 10
fillins = 0
solver = Normal
Matrix Compiler1:      31 opcodes
Matrix Compiler2: 740 bytes object code size
