Circuit: * C:\eeo\eeo-352\spice\l6-spice\1a.asc

Direct Newton iteration for .op point succeeded.

Date: Fri Oct 27 20:12:26 2023
Total elapsed time: 0.052 seconds.

tnom = 27
temp = 27
method = trap
totiter = 19
traniter = 0
tranpoints = 0
accept = 0
rejected = 0
matrix size = 11
fillins = 1
solver = Normal
Matrix Compiler1:      31 opcodes
Matrix Compiler2: 1001 bytes object code size
