Circuit: * C:\eeo\eeo-352\spice\l6-spice\1c.asc

Direct Newton iteration for .op point succeeded.

Date: Fri Oct 27 20:14:15 2023
Total elapsed time: 0.074 seconds.

tnom = 27
temp = 27
method = trap
totiter = 32
traniter = 0
tranpoints = 0
accept = 0
rejected = 0
matrix size = 12
fillins = 4
solver = Normal
Matrix Compiler1:      35 opcodes
Matrix Compiler2:      85 opcodes
