Circuit: * C:\eeo\eeo-352\spice\lab-3\fig1a.asc

WARNING: Node NC_01 is floating.

WARNING: Less than two connections to node NC_01.  This node is used by D1.
WARNING: Less than two connections to node NC_02.  This node is used by D2.
Direct Newton iteration for .op point succeeded.

Date: Fri Sep 29 20:17:29 2023
Total elapsed time: 0.025 seconds.

tnom = 27
temp = 27
method = modified trap
totiter = 2171
traniter = 2149
tranpoints = 1042
accept = 1042
rejected = 0
matrix size = 12
fillins = 0
solver = Normal
Matrix Compiler1: 428 bytes object code size  0.1/0.1/[0.0]
Matrix Compiler2: off  [0.1]/0.1/0.1

