Circuit: * C:\eeo\eeo-353\reports\l-2\_spice\fig1-1c.asc

Direct Newton iteration for .op point succeeded.

Date: Sat Feb 03 14:20:15 2024
Total elapsed time: 0.015 seconds.

tnom = 27
temp = 27
method = trap
totiter = 7
traniter = 0
tranpoints = 0
accept = 0
rejected = 0
matrix size = 12
fillins = 0
solver = Normal
Matrix Compiler1:      36 opcodes
Matrix Compiler2: 920 bytes object code size
