Circuit: * C:\eeo\eeo-353\reports\l-2\_spice\fig2.asc

Direct Newton iteration for .op point succeeded.

Date: Thu Feb 01 12:50:20 2024
Total elapsed time: 0.078 seconds.

tnom = 27
temp = 27
method = modified trap
totiter = 7031
traniter = 6990
tranpoints = 2768
accept = 2151
rejected = 617
matrix size = 20
fillins = 19
solver = Normal
Matrix Compiler1: 2.05 KB object code size  0.4/0.1/[0.1]
Matrix Compiler2: off  [0.1]/0.2/0.2

