Circuit: * C:\eeo\eeo-353\reports\l-2\_spice\fig2-5.asc

Direct Newton iteration for .op point succeeded.
N-Period=100
Fourier components of V(o)
DC component:2.2699e-005

Harmonic	Frequency	 Fourier 	Normalized	 Phase  	Normalized
 Number 	  [Hz]   	Component	 Component	[degree]	Phase [deg]
    1   	2.000e+03	9.899e-01	1.000e+00	   -0.28°	    0.00°
    2   	4.000e+03	5.172e-05	5.224e-05	   59.85°	   60.13°
    3   	6.000e+03	2.034e-03	2.054e-03	  -98.38°	  -98.09°
    4   	8.000e+03	4.787e-05	4.836e-05	   65.09°	   65.37°
    5   	1.000e+04	1.978e-03	1.999e-03	 -104.24°	 -103.96°
    6   	1.200e+04	4.732e-05	4.780e-05	   60.56°	   60.84°
    7   	1.400e+04	1.936e-03	1.956e-03	 -110.23°	 -109.94°
    8   	1.600e+04	4.702e-05	4.750e-05	   54.29°	   54.57°
    9   	1.800e+04	1.898e-03	1.917e-03	 -116.30°	 -116.02°
   10   	2.000e+04	4.675e-05	4.723e-05	   47.35°	   47.63°
Total Harmonic Distortion: 0.396580%(0.936602%)



Date: Sat Feb 03 15:46:07 2024
Total elapsed time: 6.300 seconds.

tnom = 27
temp = 27
method = modified trap
totiter = 1000087
traniter = 1000046
tranpoints = 500024
accept = 500021
rejected = 3
matrix size = 20
fillins = 19
solver = Normal
Matrix Compiler1: 2.05 KB object code size  0.3/0.1/[0.1]
Matrix Compiler2: off  [0.1]/0.2/0.2

