Circuit: * C:\eeo\eeo-352\spice\l9-spice\fig1b-2.asc

WARNING: Less than two connections to node NC_01.  This node is used by R:U1:OUT1:OUT.
WARNING: Less than two connections to node Q2.  This node is used by R:U2:OUT0:OUT.
WARNING: Less than two connections to node NC_02.  This node is used by R:U2:OUT1:OUT.
Direct Newton iteration for .op point succeeded.

Date: Sun Dec 03 19:47:46 2023
Total elapsed time: 36.271 seconds.

tnom = 27
temp = 27
method = modified trap
totiter = 2105143
traniter = 2105114
tranpoints = 999277
accept = 998917
rejected = 360
matrix size = 135
fillins = 11
solver = Normal
Thread vector: 3.9/2.7[5] 1.7/1.1[5] 0.9/0.6[5] 0.2/0.7[1]  2592/500
Matrix Compiler1: 4.98 KB object code size  0.9/0.5/[0.3]
Matrix Compiler2: off  [0.4]/0.7/0.5

