Circuit: * C:\eeo\eeo-352\spice\l9-spice\fig1b.asc

WARNING: Less than two connections to node Q.  This node is used by R:U1:OUT0:OUT.
WARNING: Less than two connections to node NC_01.  This node is used by R:U1:OUT1:OUT.
Direct Newton iteration for .op point succeeded.

Date: Tue Dec 05 16:17:05 2023
Total elapsed time: 48.780 seconds.

tnom = 27
temp = 27
method = modified trap
totiter = 2030704
traniter = 2030676
tranpoints = 989897
accept = 989693
rejected = 204
matrix size = 71
fillins = 7
solver = Normal
Thread vector: 6.2/5.3[2] 4.8/3.1[2] 2.2/3.7[1] 0.2/1.0[1]  2592/500
Matrix Compiler1: 2.65 KB object code size  1.2/1.3/[0.5]
Matrix Compiler2: 3.92 KB object code size  1.4/1.4/[0.8]

