Circuit: * C:\eeo\eeo-352\spice\l9-spice\fig1.asc

WARNING: Less than two connections to node Q.  This node is used by R:U1:OUT0:OUT.
WARNING: Less than two connections to node NC_01.  This node is used by R:U1:OUT1:OUT.
Direct Newton iteration for .op point succeeded.

Date: Sun Dec 03 16:31:30 2023
Total elapsed time: 32.844 seconds.

tnom = 27
temp = 27
method = modified trap
totiter = 2030706
traniter = 2030678
tranpoints = 989898
accept = 989693
rejected = 205
matrix size = 71
fillins = 7
solver = Normal
Thread vector: 4.5/3.4[2] 1.5/1.3[2] 0.7/0.8[1] 0.1/0.3[1]  2592/500
Matrix Compiler1: 2.65 KB object code size  0.7/0.5/[0.2]
Matrix Compiler2: off  [0.4]/0.8/0.5

