Circuit: * C:\eeo\eeo-353\reports\l-9\_spice\task1.asc

Direct Newton iteration for .op point succeeded.

Date: Sun Apr 28 16:37:53 2024
Total elapsed time: 0.843 seconds.

tnom = 27
temp = 27
method = modified trap
totiter = 229324
traniter = 229286
tranpoints = 113742
accept = 90675
rejected = 23067
matrix size = 16
fillins = 2
solver = Normal
Matrix Compiler1: 686 bytes object code size  0.1/0.1/[0.1]
Matrix Compiler2: off  [0.1]/0.1/0.2

